Version 4
SHEET 1 880 680
FLAG 112 48 0
FLAG 112 288 0
SYMBOL res 96 192 R0
SYMATTR InstName R1
SYMATTR Value R={100/I(R1)^2}
SYMBOL voltage 112 144 R180
WINDOW 0 24 96 Left 2
WINDOW 3 24 16 Left 2
WINDOW 123 0 0 Left 0
WINDOW 39 0 0 Left 0
SYMATTR InstName V1
SYMATTR Value 10
SYMBOL res 96 112 R0
SYMATTR InstName R2
SYMATTR Value 1
TEXT 168 80 Left 2 !.op
